Circuit: * C:\Users\Jorge\Documents\fish-n-chips\Spice\LM2596-5.asc

Questionable use of curly braces in "b§e_abmgate yint 0 v={if(v(a)>{{vthresh}}|v(b)>{{vthresh}}|v(c)>{{vthresh}},{{vdd}},{{vss}})}"
    Error: undefined symbol in: "if([v](a)>((vthresh))|v(b)>((vthresh))|v(c)>((vthresh)),((vdd)),((vss)))"
Questionable use of curly braces in "b§e_abmgate yint 0 v={if(v(a)>{{vthresh}},{{vdd}},{{vss}})}"
    Error: undefined symbol in: "if([v](a)>((vthresh)),((vdd)),((vss)))"
Direct Newton iteration for .op point succeeded.
Heightened Def Con from 0.00133577 to 0.00133577

Date: Wed Nov 04 16:55:12 2015
Total elapsed time: 10.600 seconds.

tnom = 27
temp = 27
method = modified trap
totiter = 725411
traniter = 725396
tranpoints = 218675
accept = 165150
rejected = 53526
matrix size = 103
fillins = 47
solver = Normal
Matrix Compiler1: 4.69 KB object code size  1.4/1.1/[0.5]
Matrix Compiler2: off  [0.6]/2.5/0.6


