Circuit: * C:\Users\Jorge\Documents\fish-n-chips\Spice\LM2596-3V3.asc

Questionable use of curly braces in "b§e_abmgate yint 0 v={if(v(a)>{{vthresh}}|v(b)>{{vthresh}}|v(c)>{{vthresh}},{{vdd}},{{vss}})}"
    Error: undefined symbol in: "if([v](a)>((vthresh))|v(b)>((vthresh))|v(c)>((vthresh)),((vdd)),((vss)))"
Questionable use of curly braces in "b§e_abmgate yint 0 v={if(v(a)>{{vthresh}},{{vdd}},{{vss}})}"
    Error: undefined symbol in: "if([v](a)>((vthresh)),((vdd)),((vss)))"
Direct Newton iteration for .op point succeeded.

Date: Wed Nov 04 17:12:09 2015
Total elapsed time: 5.428 seconds.

tnom = 27
temp = 27
method = modified trap
totiter = 358880
traniter = 358867
tranpoints = 111796
accept = 84917
rejected = 26879
matrix size = 102
fillins = 47
solver = Normal
Thread vector: 14.0/11.1[2] 4.8/3.1[2] 5.0/2.6[2] 0.4/1.4[1]  2592/500
Matrix Compiler1: 4.64 KB object code size  2.1/1.2/[0.8]
Matrix Compiler2: 7.06 KB object code size  1.0/2.2/[0.6]


